Circuit: * D:\電機大二上\電子實驗(一)\Lab\La5 Simulation-LTspice\LTspice\exp1\R_voltmeter=inf\R_voltmeter=inf.asc

Direct Newton iteration for .op point succeeded.

Date: Fri Nov 05 15:18:13 2021
Total elapsed time: 0.031 seconds.

tnom = 27
temp = 27
method = trap
totiter = 3
traniter = 0
tranpoints = 0
accept = 0
rejected = 0
matrix size = 12
fillins = 0
solver = Normal
Matrix Compiler1: 302 bytes object code size
Matrix Compiler2: 664 bytes object code size

