Circuit: * D:\電機大二上\電子實驗(一)\Lab\Lab3 Basic Component\LTspice_Simulation\Speaker\speaker.asc

.OP point found by inspection.

Date: Wed Oct 20 16:14:07 2021
Total elapsed time: 0.040 seconds.

tnom = 27
temp = 27
method = modified trap
totiter = 2082
traniter = 2082
tranpoints = 1042
accept = 1042
rejected = 0
matrix size = 6
fillins = 0
solver = Normal
Matrix Compiler1: 182 bytes object code size  0.1/0.0/[0.0]
Matrix Compiler2: 322 bytes object code size  0.1/0.1/[0.1]


