Circuit: * D:\電機大二上\電子實驗(一)\Lab\Lab4 Operational Amplifier\LTspice\inverting_op.asc

Direct Newton iteration for .op point succeeded.

Date: Tue Nov 02 19:19:34 2021
Total elapsed time: 0.158 seconds.

tnom = 27
temp = 27
method = modified trap
totiter = 2111
traniter = 2100
tranpoints = 1051
accept = 1050
rejected = 1
matrix size = 38
fillins = 29
solver = Normal
Matrix Compiler1: 2.96 KB object code size  2.9/1.8/[0.7]
Matrix Compiler2: 3.53 KB object code size  1.6/2.0/[1.1]


