Circuit: * D:\電機大二上\電子實驗(一)\Lab\Lab4 Operational Amplifier\LTspice\weight_adder.asc

Direct Newton iteration for .op point succeeded.
Changing Tseed to 1e-010
Changing Tseed to 1e-012
Changing Tseed to 1e-009
Changing Tseed to 1e-013
Heightened Def Con from 8.26317e-013 to 1.1e-009
Heightened Def Con from 0.005 to 0.005
Heightened Def Con from 0.01 to 0.01
Heightened Def Con from 0.015 to 0.015
Heightened Def Con from 0.02 to 0.02
Heightened Def Con from 0.025 to 0.025
Heightened Def Con from 0.03 to 0.03
Heightened Def Con from 0.035 to 0.035
Heightened Def Con from 0.04 to 0.04
Heightened Def Con from 0.045 to 0.045
Heightened Def Con from 0.05 to 0.05
Heightened Def Con from 0.055 to 0.055
Heightened Def Con from 0.06 to 0.06
Heightened Def Con from 0.065 to 0.065
Heightened Def Con from 0.07 to 0.07
Heightened Def Con from 0.075 to 0.075

Date: Tue Nov 02 19:23:30 2021
Total elapsed time: 0.459 seconds.

tnom = 27
temp = 27
method = modified trap
totiter = 11387
traniter = 11376
tranpoints = 4112
accept = 3386
rejected = 738
matrix size = 40
fillins = 29
solver = Normal
Matrix Compiler1: 3.01 KB object code size  2.3/1.3/[0.6]
Matrix Compiler2: off  [1.3]/1.5/1.4


