Circuit: * D:\電機大二上\電子實驗(一)\Lab\La5 Simulation-LTspice\LTspice\exp3\Draft6.asc


Date: Fri Nov 05 16:20:23 2021
Total elapsed time: 0.016 seconds.

tnom = 27
temp = 27
method = trap
totiter = 422
traniter = 0
tranpoints = 0
accept = 0
rejected = 0
matrix size = 3
fillins = 0
solver = Normal
Matrix Compiler1: 86 bytes object code size  0.0/0.0/[0.0]
Matrix Compiler2: off  [0.0]/0.1/0.0


