Circuit: * D:\電機大二上\電子實驗(一)\Lab\Lab3 Basic Component\LTspice_Simulation\RL_circuit\Draft1.asc

.OP point found by inspection.

Date: Sun Oct 17 00:23:26 2021
Total elapsed time: 0.038 seconds.

tnom = 27
temp = 27
method = modified trap
totiter = 2082
traniter = 2082
tranpoints = 1042
accept = 1042
rejected = 0
matrix size = 6
fillins = 0
solver = Normal
Matrix Compiler1: 182 bytes object code size  0.1/0.1/[0.0]
Matrix Compiler2: 322 bytes object code size  0.1/0.1/[0.0]


