Circuit: * D:\電機大二上\電子實驗(一)\Lab\Lab3 Basic Component\LTspice_Simulation\RL_circuit\RL_curcuit.asc

.OP point found by inspection.

Date: Sat Oct 16 20:10:34 2021
Total elapsed time: 0.047 seconds.

tnom = 27
temp = 27
method = modified trap
totiter = 2560
traniter = 2560
tranpoints = 1281
accept = 1219
rejected = 62
matrix size = 12
fillins = 0
solver = Normal
Matrix Compiler1: 374 bytes object code size  0.1/0.1/[0.1]
Matrix Compiler2: 640 bytes object code size  0.1/0.1/[0.1]


