Circuit: * D:\電機大二上\電子實驗(一)\Lab\Lab4 Operational Amplifier\LTspice\non_inverting_op.asc

Direct Newton iteration for .op point succeeded.

Date: Tue Nov 02 19:07:00 2021
Total elapsed time: 0.113 seconds.

tnom = 27
temp = 27
method = modified trap
totiter = 2109
traniter = 2098
tranpoints = 1050
accept = 1049
rejected = 1
matrix size = 38
fillins = 29
solver = Normal
Matrix Compiler1: 2.98 KB object code size  0.9/0.4/[0.2]
Matrix Compiler2: 3.56 KB object code size  0.4/0.5/[0.3]


